Version 4
SHEET 1 2880 680
WIRE 2432 -928 2192 -928
WIRE 2448 -928 2432 -928
WIRE 2560 -928 2512 -928
WIRE 2400 -752 2352 -752
WIRE 2160 -672 2144 -672
WIRE 2192 -624 2192 -928
WIRE 2192 -624 2144 -624
WIRE 1616 -592 1552 -592
WIRE 1920 -592 1920 -640
WIRE 2192 -592 2144 -592
WIRE 2240 -592 2192 -592
WIRE 1552 -560 1552 -592
WIRE 2192 -560 2144 -560
WIRE 2256 -560 2208 -560
WIRE 1920 -544 1776 -544
WIRE 2192 -528 2144 -528
WIRE 2272 -528 2272 -752
WIRE 2272 -528 2192 -528
WIRE 1776 -496 1776 -544
WIRE 2144 -496 1776 -496
WIRE 2192 -496 2144 -496
WIRE 1552 -464 1552 -480
WIRE 1776 -432 1776 -496
WIRE 1776 -432 1136 -432
WIRE 2144 -432 2144 -496
WIRE 1568 -400 128 -400
WIRE 1664 -400 1568 -400
WIRE 1680 -400 1664 -400
WIRE 1856 -400 1760 -400
WIRE 1872 -400 1856 -400
WIRE 1568 -352 1568 -400
WIRE 1568 -352 1552 -352
WIRE 1760 -352 1760 -400
WIRE 1760 -352 1744 -352
WIRE 1904 -336 1888 -336
WIRE 1920 -336 1904 -336
WIRE 2144 -256 2144 -288
WIRE 128 -160 128 -400
WIRE 192 -160 128 -160
WIRE 352 -80 192 -80
WIRE 496 -80 464 -80
WIRE 560 -80 496 -80
WIRE 624 -80 560 -80
WIRE 496 -64 496 -80
WIRE 624 -64 624 -80
WIRE 560 -48 560 -80
WIRE 464 16 464 0
WIRE 464 16 400 16
WIRE 496 16 496 0
WIRE 496 16 464 16
WIRE 560 16 496 16
WIRE 624 16 560 16
WIRE 208 48 176 48
WIRE 176 80 176 48
WIRE 1136 80 1136 -432
WIRE 1136 80 176 80
WIRE 400 96 400 16
WIRE 400 96 352 96
FLAG 352 96 0
FLAG 192 -16 0
FLAG 1552 -464 0
FLAG 1616 -592 fref
FLAG 2192 -624 pc1
FLAG 2192 -592 pc2
FLAG 2192 -560 pcp
FLAG 2192 -528 pc3
FLAG 2144 -256 0
FLAG 2160 -672 vcc
FLAG 2192 -496 fvco
IOPIN 2192 -496 Out
FLAG 2352 -688 0
FLAG 2512 -864 0
FLAG 1552 -272 0
FLAG 1664 -400 vcc
FLAG 1856 -592 fref
IOPIN 1856 -592 In
FLAG 1744 -272 0
FLAG 1856 -400 vco
FLAG 1904 -336 vco
SYMBOL res 304 32 R90
WINDOW 0 0 56 VBottom 2
WINDOW 3 32 56 VTop 2
SYMATTR InstName R1
SYMATTR Value 450
SYMBOL npn 288 0 R0
SYMATTR InstName Q1
SYMATTR Value 2N3055
SYMBOL ind2 336 -96 R0
WINDOW 0 -1 -3 Left 2
WINDOW 3 -18 -32 Left 2
SYMATTR InstName L1
SYMATTR Value 0.29mh
SYMATTR Type ind
SYMBOL cap 176 -80 R0
SYMATTR InstName C1
SYMATTR Value 100µ
SYMBOL res 176 -176 R0
SYMATTR InstName R2
SYMATTR Value 5
SYMBOL cap 544 -48 R0
SYMATTR InstName C2
SYMATTR Value 2000p
SYMBOL res 608 -80 R0
SYMATTR InstName R3
SYMATTR Value 100k
SYMBOL cap 480 -64 R0
SYMATTR InstName C3
SYMATTR Value 2000p
SYMBOL ind2 480 16 R180
WINDOW 0 16 123 Left 2
WINDOW 3 0 145 Left 2
SYMATTR InstName L3
SYMATTR Value 14mh
SYMATTR Type ind
SYMBOL voltage 1552 -576 R0
WINDOW 123 0 0 Left 2
WINDOW 39 0 0 Left 2
SYMATTR InstName V3
SYMATTR Value SINE(0 70m 40000 {delay})
SYMBOL 74hc4046a_h 2032 -720 R0
WINDOW 39 -324 519 Left 2
SYMATTR SpiceLine VCC1=5 FMIN=3e4 FMAX=4e4 SPEED=1.0 TDEL1=5n TRIPDT1=5n
SYMATTR InstName X1
SYMBOL res 2368 -768 R90
WINDOW 0 0 56 VBottom 2
WINDOW 3 32 56 VTop 2
SYMATTR InstName R5
SYMATTR Value 8k
SYMBOL cap 2336 -752 R0
SYMATTR InstName C4
SYMATTR Value 1µ
SYMBOL res 2528 -944 R90
WINDOW 0 0 56 VBottom 2
WINDOW 3 32 56 VTop 2
SYMATTR InstName R6
SYMATTR Value 8k
SYMBOL cap 2496 -928 R0
SYMATTR InstName C5
SYMATTR Value 1µ
SYMBOL voltage 1552 -368 R0
SYMATTR InstName V4
SYMATTR Value 5
SYMBOL cap 1920 -608 R90
WINDOW 0 0 32 VBottom 2
WINDOW 3 32 32 VTop 2
SYMATTR InstName C6
SYMATTR Value 1p
SYMBOL voltage 1744 -368 R0
WINDOW 123 0 0 Left 2
WINDOW 39 0 0 Left 2
SYMATTR InstName V5
SYMATTR Value 5
TEXT 144 216 Left 2 !K1 L1 L3 1
TEXT 1536 -672 Left 2 !.tran 0 75m 0
TEXT 1536 -640 Left 2 !.options plotwinsize=0\n.step param delay 0 25u 2.5u
TEXT 1696 -144 Left 2 ;The visible parameters are from the 74HC4046 model. \nThey can be made invisible in the symbol's dialog.\nTherefore RightMouseClick on the symbol and uncheck it.\n \nFMAX = max. VCO frequency\nFMIN = min. VCO frequency\nTDEL1=5n  internal gate delay; don't change it\nTRIPDT1=3n  change it to 2n for Fvco>=1e6, 2n*1e6/Fvco_max\nExample: Fvco_max=1kHz -> TRIPDT=2u
TEXT 1552 -1112 Left 2 ;The (MC)74HC4046 PLL\nHelmut Sennewald, V0.92\nPlease refer to the Onsemi and Philips datasheets.\nhttp://www.onsemi.com/pub/Collateral/MC74HC4046A-D.PDF\nhttp://www.semiconductors.philips.com/acrobat/datasheets/74HC_HCT4046A_CNV_2.pdf\nThe datasheets from Fairchild and National Semiconductor show a different phase detector-2. \n \nThis is a hierarchical design. You can RightMouseClick \non the instance(symbol) and probe down the hierarchy. \nTo probe signals down the hierarchy requires\nControl Panel -> Save Defaults \n...Save Subcircuit Voltages\n...Save Subcircuit Currents
TEXT 2352 -672 Left 2 ;Loop Filter\nReference designators according to \nPLL-design program pll.zip from Philips.
RECTANGLE Normal 2496 -176 1696 -224
