Version 4
SHEET 1 2020 1976
WIRE -1232 112 -1472 112
WIRE -1216 112 -1232 112
WIRE -1104 112 -1152 112
WIRE -1264 288 -1312 288
WIRE -1504 368 -1520 368
WIRE -1472 416 -1472 112
WIRE -1472 416 -1520 416
WIRE -2048 448 -2112 448
WIRE -1744 448 -1744 400
WIRE -1472 448 -1520 448
WIRE -1424 448 -1472 448
WIRE -2112 480 -2112 448
WIRE -1472 480 -1520 480
WIRE -1408 480 -1456 480
WIRE -1472 512 -1520 512
WIRE -1392 512 -1392 288
WIRE -1392 512 -1472 512
WIRE -1744 544 -1744 496
WIRE -1520 544 -1744 544
WIRE -1472 544 -1520 544
WIRE -2112 576 -2112 560
WIRE -1520 608 -1520 544
WIRE -2000 640 -2096 640
WIRE -1984 640 -2000 640
WIRE -1808 640 -1904 640
WIRE -1792 640 -1808 640
WIRE -2096 688 -2096 640
WIRE -2096 688 -2112 688
WIRE -1904 688 -1904 640
WIRE -1904 688 -1920 688
WIRE -1760 704 -1776 704
WIRE -1744 704 -1760 704
WIRE -1520 784 -1520 752
FLAG -2112 576 0
FLAG -2048 448 fref
FLAG -1472 416 pc1
FLAG -1472 448 pc2
FLAG -1472 480 pcp
FLAG -1472 512 pc3
FLAG -1520 784 0
FLAG -1504 368 vcc
FLAG -1472 544 fvco
IOPIN -1472 544 Out
FLAG -1312 352 0
FLAG -1152 176 0
FLAG -2112 768 0
FLAG -2000 640 vcc
FLAG -1808 448 fref
IOPIN -1808 448 In
FLAG -1920 768 0
FLAG -1808 640 vco
FLAG -1760 704 vco
SYMBOL voltage -2112 464 R0
WINDOW 123 0 0 Left 2
WINDOW 39 0 0 Left 2
SYMATTR InstName V1
SYMATTR Value SINE(0 70m 40000 {delay})
SYMBOL 74hc4046a_h -1632 320 R0
WINDOW 39 -324 519 Left 2
SYMATTR SpiceLine VCC1=5 FMIN=3e4 FMAX=4e4 SPEED=1.0 TDEL1=5n TRIPDT1=5n
SYMATTR InstName X1
SYMBOL res -1296 272 R90
WINDOW 0 0 56 VBottom 2
WINDOW 3 32 56 VTop 2
SYMATTR InstName R2
SYMATTR Value 8k
SYMBOL cap -1328 288 R0
SYMATTR InstName C4
SYMATTR Value 1µ
SYMBOL res -1136 96 R90
WINDOW 0 0 56 VBottom 2
WINDOW 3 32 56 VTop 2
SYMATTR InstName R6
SYMATTR Value 8k
SYMBOL cap -1168 112 R0
SYMATTR InstName C6
SYMATTR Value 1µ
SYMBOL voltage -2112 672 R0
SYMATTR InstName V3
SYMATTR Value 5
SYMBOL cap -1744 432 R90
WINDOW 0 0 32 VBottom 2
WINDOW 3 32 32 VTop 2
SYMATTR InstName C1
SYMATTR Value 1p
SYMBOL voltage -1920 672 R0
WINDOW 123 0 0 Left 2
WINDOW 39 0 0 Left 2
SYMATTR InstName V2
SYMATTR Value 5
TEXT -2128 368 Left 2 !.tran 0 100m 0 100n
TEXT -2128 400 Left 2 !.options plotwinsize=0\n.step param delay 0 25u 2.5u
TEXT -1968 896 Left 2 ;The visible parameters are from the 74HC4046 model. \nThey can be made invisible in the symbol's dialog.\nTherefore RightMouseClick on the symbol and uncheck it.\n \nFMAX = max. VCO frequency\nFMIN = min. VCO frequency\nTDEL1=5n  internal gate delay; don't change it\nTRIPDT1=3n  change it to 2n for Fvco>=1e6, 2n*1e6/Fvco_max\nExample: Fvco_max=1kHz -> TRIPDT=2u
TEXT -2112 -72 Left 2 ;The (MC)74HC4046 PLL\nHelmut Sennewald, V0.92\nPlease refer to the Onsemi and Philips datasheets.\nhttp://www.onsemi.com/pub/Collateral/MC74HC4046A-D.PDF\nhttp://www.semiconductors.philips.com/acrobat/datasheets/74HC_HCT4046A_CNV_2.pdf\nThe datasheets from Fairchild and National Semiconductor show a different phase detector-2. \n \nThis is a hierarchical design. You can RightMouseClick \non the instance(symbol) and probe down the hierarchy. \nTo probe signals down the hierarchy requires\nControl Panel -> Save Defaults \n...Save Subcircuit Voltages\n...Save Subcircuit Currents
TEXT -1312 368 Left 2 ;Loop Filter\nReference designators according to \nPLL-design program pll.zip from Philips.
RECTANGLE Normal -1168 864 -1968 816
