Version 4
SHEET 1 1236 680
WIRE -768 -784 -800 -784
WIRE -528 -784 -768 -784
WIRE -304 -784 -528 -784
WIRE 320 -752 -160 -752
WIRE -304 -720 -352 -720
WIRE -528 -704 -528 -784
WIRE -352 -640 -352 -720
WIRE -304 -640 -304 -688
WIRE -304 -640 -352 -640
WIRE -304 -592 -304 -640
WIRE -528 -576 -528 -624
WIRE -160 -368 -208 -368
WIRE -208 -352 -208 -368
WIRE -256 -272 -256 -320
WIRE -160 -240 -160 -368
WIRE 320 -224 320 -752
WIRE 368 -224 320 -224
WIRE -496 -176 -544 -176
WIRE -224 -176 -304 -176
WIRE -48 -176 -96 -176
WIRE 112 -176 -48 -176
WIRE 624 -176 560 -176
WIRE 736 -176 704 -176
WIRE 848 -176 736 -176
WIRE 368 -144 256 -144
WIRE 736 -128 736 -176
WIRE 112 -112 64 -112
WIRE -400 -64 -400 -112
WIRE -160 -64 -160 -112
WIRE 464 -48 464 -96
WIRE 64 -32 64 -112
WIRE 112 -32 112 -80
WIRE 112 -32 64 -32
WIRE 736 -16 736 -64
WIRE 112 16 112 -32
WIRE -544 64 -544 -176
WIRE 848 64 848 -176
WIRE 848 64 -544 64
WIRE -48 160 -48 -176
WIRE 928 160 -48 160
WIRE 944 160 928 160
FLAG 112 16 0
FLAG -400 -64 0
FLAG -528 -576 0
FLAG 736 -16 0
FLAG 464 -48 0
FLAG -160 -64 0
FLAG -256 -272 0
FLAG -304 -592 0
FLAG 928 160 out
FLAG -768 -784 in
SYMBOL SpecialFunctions\\modulate 112 -176 R0
WINDOW 3 -16 -94 Left 0
SYMATTR Value mark=11K space=9k
SYMATTR InstName A1
SYMBOL voltage -528 -720 R0
WINDOW 3 24 104 Invisible 0
WINDOW 123 0 0 Left 0
WINDOW 39 0 0 Left 0
SYMATTR Value PWL(0 0.1 20m 0.1 20.001m 0.4 40m 0.4 40.001m 0.1 50m 0.1 50.001m 0.9 75m 0.9 100m 0.1 120m 0.1 140m 0.9 190m 0.1)
SYMATTR InstName V1
SYMBOL cap 720 -128 R0
SYMATTR InstName C1
SYMATTR Value 47n
SYMBOL res 720 -192 R90
WINDOW 0 0 56 VBottom 0
WINDOW 3 32 56 VTop 0
SYMATTR InstName R1
SYMATTR Value 10k
SYMBOL SpecialFunctions\\modulate -304 -784 R0
WINDOW 3 -16 -94 Left 0
SYMATTR Value mark=11K space=9k
SYMATTR InstName A2
SYMBOL control\\pid -400 -176 R0
SYMATTR Value Kp=3 Ti=40m Td=100u
SYMATTR Value2 dampfactor=0.5 limit=1
SYMATTR InstName U5
SYMBOL control\\const -256 -368 R0
SYMATTR Value value=.5
SYMATTR InstName U1
SYMBOL control\\sum -160 -176 R0
SYMATTR InstName U3
SYMBOL control\\mult 464 -176 R0
SYMATTR InstName U2
TEXT -280 232 Left 0 !.tran 0 300m 0
TEXT 168 -1016 Left 0 ;PLL
TEXT -624 -944 Left 0 ;transmitter / modulator
TEXT -632 -416 Left 0 ;receiver / demodulator
RECTANGLE Normal 0 -496 -656 -976 2
RECTANGLE Normal 912 112 -656 -448 2
